Circuit: * C:\Users\USUARIO\Downloads\Diseno\ProyectoGitHub\Proyecto\1.Simulaciones_LTSPICE\1.Esquematico_Simulacion_Medidor_Corriente_Ideal\CorrienteIdeal.asc

Direct Newton iteration for .op point succeeded.
Semiconductor Device Operating Points:
                        --- Diodes ---
Name:    d:u1:ip     d:u1:in     d:u1:1      d:u1:2      d:u1:op
Model:    u1:di       u1:di      u1:dn1      u1:dn1       u1:do
Id:      1.70e-12    3.11e-12    1.00e+00    1.00e+00    2.95e-12
Vd:      1.69e+00    3.11e+00    7.15e-01    7.15e-01    2.95e+00
Req:     1.00e-12    1.00e-12    2.59e-02    2.59e-02    1.00e-12
CAP:     0.00e+00    0.00e+00    0.00e+00    0.00e+00    0.00e+00

Name:    d:u1:on     d:u1:gp     d:u1:gn     d:u2:ip     d:u2:in
Model:    u1:do       u1:dg       u1:dg       u2:di       u2:di
Id:      3.05e-12    8.55e-12    8.67e-12    1.65e-12    3.15e-12
Vd:      3.05e+00    8.54e+00    8.66e+00    1.65e+00    3.15e+00
Req:     1.00e-12    1.00e-12    1.00e-12    1.00e-12    1.00e-12
CAP:     0.00e+00    0.00e+00    0.00e+00    0.00e+00    0.00e+00

Name:    d:u2:1      d:u2:2      d:u2:op     d:u2:on     d:u2:gp
Model:   u2:dn1      u2:dn1       u2:do       u2:do       u2:dg
Id:      1.00e+00    1.00e+00   -6.56e-03    6.01e-12    4.18e-12
Vd:      7.15e-01    7.15e-01   -1.15e-03    6.00e+00    4.18e+00
Req:     2.59e-02    2.59e-02    1.00e+03    1.00e-12    1.00e-12
CAP:     0.00e+00    0.00e+00    0.00e+00    0.00e+00    0.00e+00

Name:    d:u2:gn
Model:    u2:dg
Id:      1.30e-11
Vd:      1.30e+01
Req:     1.00e-12
CAP:     0.00e+00



Date: Sun Oct 13 10:00:07 2024
Total elapsed time: 0.105 seconds.

tnom = 27
temp = 27
method = trap
totiter = 10
traniter = 0
tranpoints = 0
accept = 0
rejected = 0
matrix size = 171
fillins = 100
solver = Normal
Avg thread counts: 2.0/0.0/2.0/2.0
Matrix Compiler1: 8.82 KB object code size
Matrix Compiler2: 13.35 KB object code size
