LTspice 24.0.9 for Windows
Circuit: * C:\Users\Dortiso\Downloads\Uis\Materias\Diseño\Proyecto\ProyectoLTSPICE\SimulacionComparador\Draft4.asc
Start Time: Thu Oct  3 11:21:45 2024
solver = Normal
Maximum thread count: 8
tnom = 27
temp = 27
method = modified trap
Direct Newton iteration for .op point succeeded.
Total elapsed time: 0.186 seconds.

