Circuit: * C:\Users\Dortiso\Downloads\Uis\Materias\Diseño\Proyecto\ProyectoLTSPICE\SimulacionComparador\Draft4.asc

WARNING: Less than two connections to node v+.  This node is used by v1.
WARNING: Less than two connections to node v-.  This node is used by v2.
Direct Newton iteration for .op point succeeded.

Date: Mon Sep 30 10:53:43 2024
Total elapsed time: 0.094 seconds.

tnom = 27
temp = 27
method = modified trap
totiter = 5263
traniter = 5232
tranpoints = 2465
accept = 2227
rejected = 238
matrix size = 22
fillins = 4
solver = Normal
Avg thread counts: 1.5/2.1/2.1/1.5
Matrix Compiler1: 1.09 KB object code size  0.3/0.2/[0.2]
Matrix Compiler2: 1.54 KB object code size  0.2/0.2/[0.2]

