Circuit: * C:\Users\USUARIO\Downloads\Diseño\ProyectoGitHub\Proyecto\ProyectoLTSPICE\SimulacionComparador\Draft4.asc

WARNING: Less than two connections to node v+.  This node is used by v1.
WARNING: Less than two connections to node v-.  This node is used by v2.
Direct Newton iteration for .op point succeeded.

Date: Fri Sep 27 08:51:31 2024
Total elapsed time: 0.115 seconds.

tnom = 27
temp = 27
method = modified trap
totiter = 5567
traniter = 5536
tranpoints = 2622
accept = 2351
rejected = 271
matrix size = 22
fillins = 4
solver = Normal
Avg thread counts: 1.0/1.1/1.1/1.0
Matrix Compiler1: 1.09 KB object code size  0.3/0.3/[0.3]
Matrix Compiler2: 1.54 KB object code size  0.3/0.3/[0.2]

