Circuit: * C:\Users\Dortiso\Downloads\Uis\Materias\Diseño\Proyecto\ProyectoLTSPICE\SimulacionComparador\SistemaComparador.asc

WARNING: Less than two connections to node v-.  This node is used by v2.
WARNING: Less than two connections to node u5:dp.  This node is used by a:u5:ddel.
WARNING: Less than two connections to node nc_01.  This node is used by r:u5:out2:out.
Instance "m:u4:45": Length shorter than recommended for a level 1 MOSFET.
Instance "m:u4:50": Length shorter than recommended for a level 1 MOSFET.
Instance "m:u4:51": Length shorter than recommended for a level 1 MOSFET.
Instance "m:u4:47": Length shorter than recommended for a level 1 MOSFET.
Instance "m:u3:45": Length shorter than recommended for a level 1 MOSFET.
Instance "m:u3:50": Length shorter than recommended for a level 1 MOSFET.
Instance "m:u3:51": Length shorter than recommended for a level 1 MOSFET.
Instance "m:u3:47": Length shorter than recommended for a level 1 MOSFET.
Direct Newton iteration failed to find .op point.  (Use ".option noopiter" to skip.)
Starting Gmin stepping
Gmin = 10
Gmin = 1.07374
Gmin = 0.115292
Gmin = 0.0123794
Gmin = 0.00132923
Gmin = 0.000142725
Gmin = 1.5325e-05
Gmin = 1.6455e-06
Gmin = 1.76685e-07
Gmin = 1.89714e-08
Gmin = 2.03704e-09
Gmin = 2.18725e-10
Gmin = 2.34854e-11
Gmin = 2.52173e-12
Gmin = 2.70769e-13
Gmin = 0
Gmin stepping succeeded in finding the operating point.

Ignoring empty pin current: Ix(u5:vc+)
Ignoring empty pin current: Ix(u5:vc-)
Ignoring empty pin current: Ix(u5:vout+)
Ignoring empty pin current: Ix(u5:vout-)
Ignoring empty pin current: Ix(u6:vc+)
Ignoring empty pin current: Ix(u6:vc-)
Ignoring empty pin current: Ix(u6:vout+)
Ignoring empty pin current: Ix(u6:vout-)
Ignoring empty pin current: Ix(u3:vc+)
Ignoring empty pin current: Ix(u3:vc-)
Ignoring empty pin current: Ix(u3:vout+)
Ignoring empty pin current: Ix(u3:vout-)
Ignoring empty pin current: Ix(u1:vc+)
Ignoring empty pin current: Ix(u1:vc-)
Ignoring empty pin current: Ix(u1:vout+)
Ignoring empty pin current: Ix(u1:vout-)
Ignoring empty pin current: Ix(u2:a)
Ignoring empty pin current: Ix(u2:c)
Ignoring empty pin current: Ix(u4:vc+)
Ignoring empty pin current: Ix(u4:vc-)
Ignoring empty pin current: Ix(u4:iout+)
Ignoring empty pin current: Ix(u4:iout-)
Ignoring empty pin current: Ix(u7:in)
Ignoring empty pin current: Ix(u7:out)
Ignoring empty pin current: Ix(u7:vcc)
Ignoring empty pin current: Ix(u7:gnd)
Ignoring empty pin current: Ix(u7:nout)
Ignoring empty pin current: Ix(u5:vc+)
Ignoring empty pin current: Ix(u5:vc-)
Ignoring empty pin current: Ix(u5:vout+)
Ignoring empty pin current: Ix(u5:vout-)
Ignoring empty pin current: Ix(u6:vc+)
Ignoring empty pin current: Ix(u6:vc-)
Ignoring empty pin current: Ix(u6:vout+)
Ignoring empty pin current: Ix(u6:vout-)
Ignoring empty pin current: Ix(u3:vc+)
Ignoring empty pin current: Ix(u3:vc-)
Ignoring empty pin current: Ix(u3:vout+)
Ignoring empty pin current: Ix(u3:vout-)
Ignoring empty pin current: Ix(u1:vc+)
Ignoring empty pin current: Ix(u1:vc-)
Ignoring empty pin current: Ix(u1:vout+)
Ignoring empty pin current: Ix(u1:vout-)
Ignoring empty pin current: Ix(u2:a)
Ignoring empty pin current: Ix(u2:c)
Ignoring empty pin current: Ix(u4:vc+)
Ignoring empty pin current: Ix(u4:vc-)
Ignoring empty pin current: Ix(u4:iout+)
Ignoring empty pin current: Ix(u4:iout-)
Ignoring empty pin current: Ix(u7:in)
Ignoring empty pin current: Ix(u7:out)
Ignoring empty pin current: Ix(u7:vcc)
Ignoring empty pin current: Ix(u7:gnd)
Ignoring empty pin current: Ix(u7:nout)
Heightened Def Con from 1.85258e-05 +to 1.85259e-05
Heightened Def Con from 0.00997525 ++to 0.00997525
Heightened Def Con from 0.00997525 to 0.00997525
Heightened Def Con from 0.0193037 to 0.0193037

Date: Mon Oct  7 22:08:28 2024
Total elapsed time: 3.176 seconds.

tnom = 27
temp = 27
method = modified trap
totiter = 73967
traniter = 73456
tranpoints = 32873
accept = 27486
rejected = 5394
matrix size = 371
fillins = 355
solver = Normal
Avg thread counts: 4.0/4.0/4.0/1.0
Matrix Compiler1: 31.31 KB object code size  6.6/3.8/[1.5]
Matrix Compiler2: 32.87 KB object code size  5.3/6.1/[2.0]

