Circuit: * C:\Users\USUARIO\Downloads\Diseño\ProyectoGitHub\Proyecto\ProyectoLTSPICE\SimulacionComparador\SistemaComparador.asc

WARNING: Less than two connections to node u5:dp.  This node is used by a:u5:ddel.
WARNING: Less than two connections to node nc_01.  This node is used by r:u5:out2:out.
Instance "m:u4:45": Length shorter than recommended for a level 1 MOSFET.
Instance "m:u4:50": Length shorter than recommended for a level 1 MOSFET.
Instance "m:u4:51": Length shorter than recommended for a level 1 MOSFET.
Instance "m:u4:47": Length shorter than recommended for a level 1 MOSFET.
Instance "m:u3:45": Length shorter than recommended for a level 1 MOSFET.
Instance "m:u3:50": Length shorter than recommended for a level 1 MOSFET.
Instance "m:u3:51": Length shorter than recommended for a level 1 MOSFET.
Instance "m:u3:47": Length shorter than recommended for a level 1 MOSFET.
Direct Newton iteration failed to find .op point.  (Use ".option noopiter" to skip.)
Starting Gmin stepping
Gmin = 10
Gmin = 1.07374
vernier = 0.5
vernier = 0.25
vernier = 0.125
vernier = 0.0625
Gmin = 0.995033
vernier = 0.03125
vernier = 0.015625
vernier = 0.0078125
vernier = 0.00390625
Gmin = 0.999816
vernier = 0.00195312
vernier = 0.000976562
vernier = 0.000488281
Gmin = 0
Gmin stepping failed

Starting source stepping with srcstepmethod=0
Source Step = 3.0303%
Source Step = 33.3333%
Source Step = 63.6364%
Source Step = 73.1179%
vernier = 0.000976562
Source Step = 73.1357%
Source Step = 73.1652%
Source Step = 73.1948%
Source Step = 73.2244%
Source Step = 73.254%
Source Step = 73.2836%
Source Step = 73.3132%
Source Step = 73.3428%
Source Step = 73.3724%
vernier = 0.00146484
Source Step = 73.4064%
Source Step = 73.4508%
Source Step = 73.4952%
Source Step = 73.5396%
Source Step = 73.584%
vernier = 0.00219727
Source Step = 73.6328%
Source Step = 73.6994%
Source Step = 73.766%
Source Step = 73.8326%
Source Step = 73.8991%
Source Step = 73.9657%
Source Step = 74.0323%
Source Step = 74.0989%
Source Step = 74.1655%
vernier = 0.0032959
Source Step = 74.2354%
Source Step = 74.3353%
Source Step = 74.4351%
Source Step = 74.535%
Source Step = 74.6349%
Source Step = 74.7348%
vernier = 0.00494385
Source Step = 74.8846%
Source Step = 75.0344%
Source Step = 75.1842%
Source Step = 75.334%
Source Step = 75.4838%
vernier = 0.00741577
Source Step = 75.7011%
Source Step = 75.9258%
Source Step = 76.1505%
Source Step = 76.3752%
Source Step = 76.6%
vernier = 0.0111237
Source Step = 76.9146%
Source Step = 77.2516%
Source Step = 77.5887%
Source Step = 77.9258%
Source Step = 78.2629%
vernier = 0.0166855
Source Step = 78.7179%
Source Step = 79.2236%
Source Step = 79.5048%
Source Step = 79.5364%
Source Step = 79.568%
Source Step = 79.5996%
Source Step = 79.6312%
Source Step = 79.6628%
vernier = 0.00156426
Source Step = 79.7102%
Source Step = 79.7576%
Source Step = 79.805%
Source Step = 79.8524%
Source Step = 79.8998%
vernier = 0.0023464
Source Step = 79.9686%
Source Step = 80.0397%
Source Step = 80.1108%
Source Step = 80.1819%
Source Step = 80.253%
vernier = 0.00351959
Source Step = 80.3525%
Source Step = 80.4592%
Source Step = 80.5658%
Source Step = 80.6725%
Source Step = 80.7791%
vernier = 0.00527939
Source Step = 80.9231%
Source Step = 81.0831%
Source Step = 81.2431%
Source Step = 81.4031%
Source Step = 81.563%
vernier = 0.00791909
Source Step = 81.771%
Source Step = 82.011%
Source Step = 82.251%
Source Step = 82.4909%
Source Step = 82.7309%
vernier = 0.0118786
Source Step = 83.0309%
Source Step = 83.3908%
Source Step = 83.7508%
Source Step = 84.1108%
Source Step = 84.4707%
vernier = 0.0178179
Source Step = 84.9027%
Source Step = 85.4426%
Source Step = 85.9825%
Source Step = 86.5225%
Source Step = 87.0624%
vernier = 0.0267269
Source Step = 87.6833%
Source Step = 88.4932%
Source Step = 89.3032%
Source Step = 90.1131%
Source Step = 90.6091%
Source Step = 90.6597%
Source Step = 90.7104%
Source Step = 90.761%
Source Step = 90.8116%
Source Step = 90.8622%
vernier = 0.00250565
Source Step = 90.9382%
Source Step = 91.0141%
Source Step = 91.09%
Source Step = 91.1659%
Source Step = 91.2419%
vernier = 0.00375847
Source Step = 91.352%
Source Step = 91.4659%
Source Step = 91.5798%
Source Step = 91.6936%
Source Step = 91.8075%
vernier = 0.00563771
Source Step = 91.967%
Source Step = 92.1378%
Source Step = 92.3087%
Source Step = 92.4795%
Source Step = 92.6503%
vernier = 0.00845657
Source Step = 92.881%
Source Step = 93.1372%
Source Step = 93.3935%
Source Step = 93.6498%
Source Step = 93.906%
vernier = 0.0126848
Source Step = 94.2392%
Source Step = 94.6235%
Source Step = 95.0079%
Source Step = 95.3923%
Source Step = 95.7767%
vernier = 0.0190273
Source Step = 96.2572%
Source Step = 96.8338%
Source Step = 97.4104%
Source Step = 97.987%
Source Step = 98.5635%
vernier = 0.0285409
Source Step = 99.2554%
Source stepping succeeded in finding the operating point.

Ignoring empty pin current: Ix(u5:vc+)
Ignoring empty pin current: Ix(u5:vc-)
Ignoring empty pin current: Ix(u5:vout+)
Ignoring empty pin current: Ix(u5:vout-)
Ignoring empty pin current: Ix(u3:vc+)
Ignoring empty pin current: Ix(u3:vc-)
Ignoring empty pin current: Ix(u3:vout+)
Ignoring empty pin current: Ix(u3:vout-)
Ignoring empty pin current: Ix(u1:vc+)
Ignoring empty pin current: Ix(u1:vc-)
Ignoring empty pin current: Ix(u1:vout+)
Ignoring empty pin current: Ix(u1:vout-)
Ignoring empty pin current: Ix(u2:a)
Ignoring empty pin current: Ix(u2:c)
Ignoring empty pin current: Ix(u4:vc+)
Ignoring empty pin current: Ix(u4:vc-)
Ignoring empty pin current: Ix(u4:iout+)
Ignoring empty pin current: Ix(u4:iout-)
Ignoring empty pin current: Ix(u7:in)
Ignoring empty pin current: Ix(u7:out)
Ignoring empty pin current: Ix(u7:vcc)
Ignoring empty pin current: Ix(u7:gnd)
Ignoring empty pin current: Ix(u7:nout)
Ignoring empty pin current: Ix(u5:vc+)
Ignoring empty pin current: Ix(u5:vc-)
Ignoring empty pin current: Ix(u5:vout+)
Ignoring empty pin current: Ix(u5:vout-)
Ignoring empty pin current: Ix(u3:vc+)
Ignoring empty pin current: Ix(u3:vc-)
Ignoring empty pin current: Ix(u3:vout+)
Ignoring empty pin current: Ix(u3:vout-)
Ignoring empty pin current: Ix(u1:vc+)
Ignoring empty pin current: Ix(u1:vc-)
Ignoring empty pin current: Ix(u1:vout+)
Ignoring empty pin current: Ix(u1:vout-)
Ignoring empty pin current: Ix(u2:a)
Ignoring empty pin current: Ix(u2:c)
Ignoring empty pin current: Ix(u4:vc+)
Ignoring empty pin current: Ix(u4:vc-)
Ignoring empty pin current: Ix(u4:iout+)
Ignoring empty pin current: Ix(u4:iout-)
Ignoring empty pin current: Ix(u7:in)
Ignoring empty pin current: Ix(u7:out)
Ignoring empty pin current: Ix(u7:vcc)
Ignoring empty pin current: Ix(u7:gnd)
Ignoring empty pin current: Ix(u7:nout)
Heightened Def Con from 0.00600098 ++++to 0.00600098
Heightened Def Con from 0.00600098 +++to 0.00600098
Heightened Def Con from 0.00600098 to 0.00600098

Date: Mon Oct  7 15:15:27 2024
Total elapsed time: 7.138 seconds.

tnom = 27
temp = 27
method = modified trap
totiter = 28894
traniter = 21150
tranpoints = 6219
accept = 4947
rejected = 1282
matrix size = 370
fillins = 769
solver = Normal
Avg thread counts: 1.0/1.0/1.0/1.0
Matrix Compiler1: 42.46 KB object code size  16.3/7.0/[3.6]
Matrix Compiler2: 40.95 KB object code size  7.8/8.4/[3.8]

