Circuit: * C:\Users\Dortiso\Downloads\Uis\Materias\Diseño\Proyecto\ProyectoLTSPICE\SimulacionMedicionCorriente Ideal\Draft3.asc

Direct Newton iteration failed to find .op point.  (Use ".option noopiter" to skip.)
Starting Gmin stepping
Gmin = 10
Gmin = 1.07374
vernier = 0.5
vernier = 0.25
vernier = 0.125
vernier = 0.0625
Gmin = 0.995033
vernier = 0.03125
vernier = 0.015625
vernier = 0.0078125
vernier = 0.00390625
Gmin = 0.999816
vernier = 0.00195312
vernier = 0.000976562
vernier = 0.000488281
Gmin = 0
Gmin stepping failed

Starting source stepping with srcstepmethod=0
Source Step = 3.0303%
vernier = 0.25
Source Step = 1.70455%
Source Step = 3.59848%
Source Step = 5.49242%
Source Step = 7.38636%
Source Step = 9.2803%
vernier = 0.09375
Source Step = 11.9318%
Source Step = 14.7727%
Source Step = 17.6136%
Source Step = 20.4545%
Source Step = 23.2955%
Source Step = 23.8858%
Source Step = 23.9302%
Source Step = 23.9746%
Source Step = 24.019%
Source Step = 24.0634%
Source Step = 24.1078%
vernier = 0.00219727
Source Step = 24.1721%
Source Step = 24.2387%
Source Step = 24.3053%
Source Step = 24.3719%
Source Step = 24.4385%
vernier = 0.0032959
Source Step = 24.5317%
Source Step = 24.6316%
Source Step = 24.7314%
Source Step = 24.8313%
Source Step = 24.9312%
vernier = 0.00494385
Source Step = 25.066%
Source Step = 25.2158%
Source Step = 25.3657%
Source Step = 25.5155%
Source Step = 25.6653%
vernier = 0.00741577
Source Step = 25.86%
Source Step = 26.0848%
Source Step = 26.3095%
Source Step = 26.5342%
Source Step = 26.7589%
vernier = 0.0111237
Source Step = 27.0398%
Source Step = 27.3769%
Source Step = 27.714%
Source Step = 28.0511%
Source Step = 28.3881%
vernier = 0.0166855
Source Step = 28.7926%
Source Step = 29.2983%
Source Step = 29.8039%
Source Step = 30.3095%
Source Step = 30.8151%
vernier = 0.0250282
Source Step = 31.3966%
Source Step = 32.155%
Source Step = 32.9135%
Source Step = 33.6719%
Source Step = 34.4303%
vernier = 0.0375423
Source Step = 35.2646%
Source Step = 36.4022%
Source Step = 37.5399%
Source Step = 38.6775%
Source Step = 39.8152%
vernier = 0.0563135
Source Step = 41.0097%
Source Step = 42.7162%
Source Step = 44.4226%
Source Step = 46.1291%
Source Step = 47.8356%
Source Step = 49.5421%
vernier = 0.0844703
Source Step = 52.1018%
Source Step = 54.6615%
Source Step = 57.2212%
Source Step = 59.7809%
Source Step = 62.3406%
vernier = 0.126705
Source Step = 66.0522%
Source Step = 69.8917%
Source Step = 73.7313%
Source Step = 77.5708%
Source Step = 81.4104%
vernier = 0.190058
Source Step = 86.7858%
Source Step = 90.2504%
Source Step = 90.3404%
Source Step = 90.4303%
Starting source stepping with srcstepmethod=1
Source Step = 3.0303%
Source Step = 33.3333%
Source Step = 63.6364%
Source Step = 93.9394%
Source Step = 99.0473%
vernier = 0.00390625
Source Step = 99.0266%
Source Step = 99.0562%
Source Step = 99.0858%
Source Step = 99.1154%
Source stepping failed

Pseudo Transient succeeded in finding the operating point at 327.701 ms.

Date: Tue Oct  1 11:40:43 2024
Total elapsed time: 2.042 seconds.

tnom = 27
temp = 27
method = trap
totiter = 19045
traniter = 0
tranpoints = 0
accept = 0
rejected = 18
matrix size = 171
fillins = 243
solver = Normal
Avg thread counts: 2.1/8.0/2.9/1.1
Matrix Compiler1:     743 opcodes  2.1/1.1/[0.6]
Matrix Compiler2: 15.82 KB object code size  1.5/1.6/[0.5]

