Circuit: * C:\Users\USUARIO\Downloads\Diseño\ProyectoGitHub\Proyecto\ProyectoLTSPICE\SimulacionCargaBaterias\Draft1.asc


Date: Fri Sep 27 09:34:22 2024
Total elapsed time: 0.108 seconds.

tnom = 27
temp = 27
method = trap
totiter = 418
traniter = 0
tranpoints = 0
accept = 0
rejected = 0
matrix size = 32
fillins = 5
solver = Normal
Avg thread counts: 1.5/0.0/2.0/1.5
Matrix Compiler1: 2.06 KB object code size  0.6/0.4/[0.3]
Matrix Compiler2: 2.62 KB object code size  0.4/0.4/[0.3]

