Circuit: * C:\Users\Dortiso\Downloads\Uis\Materias\Diseño\Proyecto\1.Simulaciones_LTSPICE\Simulacion_Medicion_Corriente_ Ideal\CorrienteIdeal.asc

Direct Newton iteration for .op point succeeded.
Semiconductor Device Operating Points:
                        --- Diodes ---
Name:    d:u1:ip     d:u1:in     d:u1:1      d:u1:2      d:u1:op
Model:    u1:di       u1:di      u1:dn1      u1:dn1       u1:do
Id:      1.70e-12    1.05e-13    1.00e+00    1.00e+00    2.95e-12
Vd:      1.69e+00    1.05e-01    7.15e-01    7.15e-01    2.95e+00
Req:     1.00e-12    1.00e-12    2.59e-02    2.59e-02    1.00e-12
CAP:     0.00e+00    0.00e+00    0.00e+00    0.00e+00    0.00e+00

Name:    d:u1:on     d:u1:gp     d:u1:gn     d:u2:ip     d:u2:in
Model:    u1:do       u1:dg       u1:dg       u2:di       u2:di
Id:      5.01e-14    8.55e-12    5.66e-12    1.65e-12    1.50e-13
Vd:      5.00e-02    8.54e+00    5.66e+00    1.65e+00    1.50e-01
Req:     1.00e-12    1.00e-12    1.00e-12    1.00e-12    1.00e-12
CAP:     0.00e+00    0.00e+00    0.00e+00    0.00e+00    0.00e+00

Name:    d:u2:1      d:u2:2      d:u2:op     d:u2:on     d:u2:gp
Model:   u2:dn1      u2:dn1       u2:do       u2:do       u2:dg
Id:      1.00e+00    1.00e+00   -9.01e-03    3.00e-12    3.80e-12
Vd:      7.15e-01    7.15e-01   -1.34e-03    3.00e+00    3.79e+00
Req:     2.59e-02    2.59e-02    1.00e+03    1.00e-12    1.00e-12
CAP:     0.00e+00    0.00e+00    0.00e+00    0.00e+00    0.00e+00

Name:    d:u2:gn
Model:    u2:dg
Id:      1.04e-11
Vd:      1.04e+01
Req:     1.00e-12
CAP:     0.00e+00



Date: Thu Oct 10 10:41:01 2024
Total elapsed time: 0.071 seconds.

tnom = 27
temp = 27
method = trap
totiter = 10
traniter = 0
tranpoints = 0
accept = 0
rejected = 0
matrix size = 169
fillins = 96
solver = Normal
Avg thread counts: 8.0/0.0/8.0/8.0
Matrix Compiler1: 8.46 KB object code size
Matrix Compiler2: 12.69 KB object code size
