Circuit: * C:\Users\Dortiso\Downloads\Uis\Materias\Diseño\Proyecto\ProyectoLTSPICE\SimulacionMedicionCorriente\CorrienteNoIDeal.asc

Direct Newton iteration failed to find .op point.  (Use ".option noopiter" to skip.)
Starting Gmin stepping
Gmin = 10
Gmin = 1.07374
vernier = 0.5
vernier = 0.25
vernier = 0.125
vernier = 0.0625
vernier = 0.03125
vernier = 0.015625
Gmin = 1.01058
vernier = 0.0078125
vernier = 0.00390625
vernier = 0.00195312
vernier = 0.000976562
vernier = 0.000488281
Gmin = 0
Gmin stepping failed

Starting source stepping with srcstepmethod=0
Source Step = 3.0303%
vernier = 0.25
Source Step = 2.84091%
Source Step = 4.73485%
Source Step = 6.62879%
Source Step = 8.52273%
Source Step = 10.4167%
vernier = 0.09375
Source Step = 12.8788%
Source Step = 15.7197%
Source Step = 18.5606%
Source Step = 21.4015%
Source Step = 24.2424%
vernier = 0.140625
Source Step = 27.7936%
Source Step = 29.1985%
Source Step = 29.2651%
Source Step = 29.3316%
Source Step = 29.3982%
Source Step = 29.4648%
vernier = 0.0032959
Source Step = 29.5381%
Source Step = 29.6379%
Source Step = 29.7378%
Source Step = 29.8377%
Source Step = 29.9376%
vernier = 0.00494385
Source Step = 30.0424%
Source Step = 30.1922%
Source Step = 30.3421%
Source Step = 30.4919%
Source Step = 30.6417%
Source Step = 30.7915%
vernier = 0.00741577
Source Step = 31.0162%
Source Step = 31.2409%
Source Step = 31.4657%
Source Step = 31.6904%
Source Step = 31.9151%
vernier = 0.0111237
Source Step = 32.2409%
Source Step = 32.578%
Source Step = 32.9151%
Source Step = 33.2522%
Source Step = 33.5893%
vernier = 0.0166855
Source Step = 34.0612%
Source Step = 34.5668%
Source Step = 35.0724%
Source Step = 35.578%
Source Step = 36.0837%
vernier = 0.0250282
Source Step = 36.7662%
Source Step = 37.5247%
Source Step = 37.9181%
Source Step = 37.9655%
Source Step = 38.0129%
Source Step = 38.0603%
Source Step = 38.1077%
Source Step = 38.1551%
vernier = 0.0023464
Source Step = 38.2191%
Source Step = 38.2902%
Source Step = 38.3613%
Source Step = 38.4324%
Source Step = 38.5035%
vernier = 0.00351959
Source Step = 38.596%
Source Step = 38.7026%
Source Step = 38.8093%
Source Step = 38.9159%
Source Step = 39.0226%
vernier = 0.00527939
Source Step = 39.1559%
Source Step = 39.3159%
Source Step = 39.4759%
Source Step = 39.6358%
Source Step = 39.7958%
vernier = 0.00791909
Source Step = 39.9878%
Source Step = 40.2278%
Source Step = 40.4677%
Source Step = 40.7077%
Source Step = 40.9477%
vernier = 0.0118786
Source Step = 41.2237%
Source Step = 41.5836%
Source Step = 41.9436%
Source Step = 42.3035%
Source Step = 42.6635%
vernier = 0.0178179
Source Step = 43.0594%
Source Step = 43.5994%
Source Step = 44.1393%
Source Step = 44.6793%
Source Step = 45.2192%
vernier = 0.0267269
Source Step = 45.7861%
Source Step = 46.596%
Source Step = 47.4059%
Source Step = 48.2159%
Source Step = 49.0258%
Source Step = 49.8357%
vernier = 0.0400904
Source Step = 51.0505%
Source Step = 52.2654%
Source Step = 53.4802%
Source Step = 54.6951%
Source Step = 55.91%
vernier = 0.0601356
Source Step = 57.6715%
Source Step = 59.4938%
Source Step = 61.3161%
Source Step = 63.1384%
Source Step = 64.9607%
vernier = 0.0902034
Source Step = 67.5119%
Source Step = 70.2453%
Source Step = 72.9788%
Source Step = 75.7122%
Source Step = 78.4456%
vernier = 0.135305
Source Step = 82.1358%
Source Step = 86.2359%
Source Step = 90.3361%
Source Step = 90.3809%
Source Step = 90.445%
Source Step = 90.509%
Source Step = 90.5731%
Source Step = 90.6372%
Source Step = 90.7012%
Source Step = 90.7653%
Source Step = 90.8294%
Source Step = 90.8934%
Source Step = 90.9575%
Source Step = 91.0216%
Source Step = 91.0856%
Source Step = 91.1497%
Source Step = 91.2138%
Source Step = 91.2778%
Source Step = 91.3419%
Source Step = 91.406%
Source Step = 91.47%
Source Step = 91.5341%
Source Step = 91.5981%
Source Step = 91.6622%
Source Step = 91.7263%
Source Step = 91.7903%
Source Step = 91.8544%
Source Step = 91.9185%
Source Step = 91.9825%
Source Step = 92.0466%
Source Step = 92.1107%
Source Step = 92.1747%
Source Step = 92.2388%
Source Step = 92.3029%
Source Step = 92.3669%
Source Step = 92.431%
Source Step = 92.4951%
Source Step = 92.5591%
Source Step = 92.6232%
Source Step = 92.6872%
Source Step = 92.7513%
Source Step = 92.8154%
Source Step = 92.8794%
Source Step = 92.9435%
Source Step = 93.0076%
Source Step = 93.0716%
Source Step = 93.1357%
Source Step = 93.1998%
Source Step = 93.2638%
Source Step = 93.3279%
Source Step = 93.392%
Source Step = 93.456%
Source Step = 93.5201%
Source Step = 93.5842%
Source Step = 93.6482%
Source Step = 93.7123%
Source Step = 93.7764%
Source Step = 93.8404%
Source Step = 93.9045%
Source Step = 93.9685%
Source Step = 94.0326%
Source Step = 94.0967%
Starting source stepping with srcstepmethod=1
Source Step = 3.0303%
vernier = 0.25
Source Step = 0.0828598%
Source Step = 0.201231%
Source Step = 0.319602%
Source Step = 0.437973%
Source Step = 0.556345%
vernier = 0.00585938
Source Step = 0.710227%
Source Step = 0.887784%
Source Step = 1.06534%
Source Step = 1.2429%
Source Step = 1.42045%
vernier = 0.00878906
Source Step = 1.6424%
Source Step = 1.90874%
Source Step = 2.17507%
Source Step = 2.44141%
Source Step = 2.70774%
vernier = 0.0131836
Source Step = 3.02734%
Source Step = 3.42685%
Source Step = 3.82635%
Source Step = 4.22585%
Source Step = 4.62536%
vernier = 0.0197754
Source Step = 5.08478%
Source Step = 5.68404%
Source Step = 6.28329%
Source Step = 6.88255%
Source Step = 7.4818%
vernier = 0.0296631
Source Step = 8.14098%
Source Step = 9.03986%
Source Step = 9.93874%
Source Step = 10.8376%
Source Step = 11.7365%
vernier = 0.0444946
Source Step = 12.6803%
Source Step = 14.0287%
Source Step = 15.377%
Source Step = 16.7253%
Source Step = 18.0736%
Source Step = 19.0259%
Source stepping failed

Pseudo Transient failed in finding the operating point at 30.7721 ms.
Trouble finding operating point....skipping operating point for Transient analysis.
