Circuit: * C:\Users\Dortiso\Downloads\Uis\Materias\Diseño\Proyecto\ProyectoLTSPICE\SimulacionMedicionCorriente\Draft1.asc

Direct Newton iteration for .op point succeeded.

Date: Thu Oct  3 10:07:51 2024
Total elapsed time: 0.087 seconds.

tnom = 27
temp = 27
method = modified trap
totiter = 2095
traniter = 2083
tranpoints = 1042
accept = 1042
rejected = 0
matrix size = 18
fillins = 4
solver = Normal
Avg thread counts: 2.3/3.6/3.6/2.3
Matrix Compiler1: 1004 bytes object code size  0.3/0.2/[0.2]
Matrix Compiler2: 1.37 KB object code size  0.2/0.2/[0.2]

